/*--------------------------------*- C++ -*----------------------------------*/
FoamFile
{
    version     2.0;
    format      ascii;
    class       dictionary;
    location    "constant";
    object      physicalProperties;
}
// * * * * * * * * * * * * * * * * * * * * * * * * * * * * * * * * * * * * * //
// Sutherland viscosity (As, Ts) = standard air, matching the MOSE case and the
// NASA NPARC/Wind-US reference. mu_inf(68.3 K) = 4.605e-6 -> Re = 36.7e6 /m.
// kappa via Eucken => Pr ~ 0.69.

thermoType
{
    type            hePsiThermo;
    mixture         pureMixture;
    transport       sutherland;
    thermo          hConst;
    equationOfState perfectGas;
    specie          specie;
    energy          sensibleInternalEnergy;
}

mixture
{
    specie
    {
        molWeight   28.9702;        // = 8314.46262 / 287.0
    }
    thermodynamics
    {
        Cp          1004.5;         // = gamma*R/(gamma-1) = 3.5*287
        Hf          0;
    }
    transport
    {
        As          1.458e-06;      // standard air Sutherland
        Ts          110.4;
    }
}
// ************************************************************************* //
