
 *******************************************************************************

         NASA-GLENN CHEMICAL EQUILIBRIUM PROGRAM CEA2, MAY 21, 2004
                   BY  BONNIE MCBRIDE AND SANFORD GORDON
      REFS: NASA RP-1311, PART I, 1994 AND NASA RP-1311, PART II, 1996

 *******************************************************************************



    problem   case=Merlin1D
      rocket  equilibrium
      sub,Ae/At = 2.0, 1.5
      sup,Ae/At = 2.0, 4.0, 8.0, 16.0
      p,bar=108.0
      o/f = 2.35
    react
      fuel=RP-1 wt=100.0 t,K=300.0
      oxid=O2(L)  wt=100.0
    output
         siunits massf short trans
    end






              THEORETICAL ROCKET PERFORMANCE ASSUMING EQUILIBRIUM

           COMPOSITION DURING EXPANSION FROM INFINITE AREA COMBUSTOR

 Pin =  1566.4 PSIA
 CASE = Merlin1D       

             REACTANT                    WT FRACTION      ENERGY      TEMP
                                          (SEE NOTE)     KJ/KG-MOL      K  
 FUEL        RP-1                         1.0000000   -295023.665    300.000
 OXIDANT     O2(L)                        1.0000000    -12979.000     90.170

 O/F=    2.35000  %FUEL= 29.850746  R,EQ.RATIO= 1.456147  PHI,EQ.RATIO= 1.456147

                 CHAMBER   THROAT     EXIT     EXIT     EXIT     EXIT     EXIT     EXIT
 Pinf/P            1.0000   1.7412   1.0581   1.1170   7.8359   21.591   56.125   141.88
 P, BAR            108.00   62.026   102.07   96.686   13.783   5.0021   1.9243  0.76119
 T, K             3644.12  3428.71  3621.79  3600.43  2862.18  2472.84  2113.89  1797.26
 RHO, KG/CU M    8.0087 0 4.9444 0 7.6251 0 7.2739 0 1.3467 0 5.6988-1 2.5707-1 1.1967-1
 H, KJ/KG         -807.75 -1529.23  -883.59  -955.90 -3239.19 -4202.17 -4978.10 -5619.04
 U, KJ/KG        -2156.28 -2783.70 -2222.23 -2285.12 -4262.65 -5079.92 -5726.65 -6255.14
 G, KJ/KG        -42353.4 -40619.0 -42174.6 -42003.4 -35870.1 -32394.3 -29078.0 -26109.1
 S, KJ/(KG)(K)    11.4007  11.4007  11.4007  11.4007  11.4007  11.4007  11.4007  11.4007

 M, (1/n)          22.468   22.725   22.495   22.521   23.252   23.424   23.480   23.492
 (dLV/dLP)t      -1.02462 -1.01858 -1.02399 -1.02339 -1.00558 -1.00154 -1.00031 -1.00005
 (dLV/dLT)p        1.4242   1.3408   1.4161   1.4082   1.1214   1.0377   1.0086   1.0014
 Cp, KJ/(KG)(K)    4.8415   4.4081   4.8019   4.7628   3.0205   2.3664   2.0875   1.9938
 GAMMAs            1.1500   1.1503   1.1499   1.1499   1.1673   1.1904   1.2081   1.2165
 SON VEL,M/SEC     1245.3   1201.2   1240.7   1236.3   1093.0   1022.2    951.0    879.7
 MACH NUMBER        0.000    1.000    0.314    0.440    2.018    2.549    3.037    3.526

 TRANSPORT PROPERTIES (GASES ONLY)
   CONDUCTIVITY IN UNITS OF MILLIWATTS/(CM)(K)

 VISC,MILLIPOISE   1.1042   1.0584   1.0995   1.0950  0.93260  0.84078  0.75209  0.67023

  WITH EQUILIBRIUM REACTIONS

 Cp, KJ/(KG)(K)    4.8415   4.4081   4.8019   4.7628   3.0205   2.3664   2.0875   1.9938
 CONDUCTIVITY     11.2115   9.7618  11.0697  10.9322   5.6962   3.6511   2.5794   2.0825
 PRANDTL NUMBER    0.4768   0.4779   0.4769   0.4770   0.4945   0.5449   0.6087   0.6417

  WITH FROZEN REACTIONS

 Cp, KJ/(KG)(K)    2.0992   2.0877   2.0981   2.0970   2.0482   2.0094   1.9621   1.9090
 CONDUCTIVITY      3.6666   3.4684   3.6460   3.6264   2.9434   2.5791   2.2422   1.9462
 PRANDTL NUMBER    0.6322   0.6371   0.6327   0.6332   0.6489   0.6550   0.6582   0.6574

 PERFORMANCE PARAMETERS

 Ae/At                      1.0000   2.0000   1.5000   2.0000   4.0000   8.0000   16.000
 CSTAR, M/SEC               1818.4   1818.4   1818.4   1818.4   1818.4   1818.4   1818.4
 CF                         0.6606   0.2142   0.2994   1.2127   1.4329   1.5882   1.7059
 Ivac, M/SEC                2245.6   3826.6   2986.2   2669.3   2942.4   3147.2   3307.1
 Isp, M/SEC                 1201.2    389.5    544.4   2205.2   2605.5   2888.0   3102.0


 MASS FRACTIONS

 *CO                4.4529053252E-01    4.3671942528E-01    4.4439307987E-01    4.4353575625E-01    4.1726137309E-01    4.0611262441E-01    3.9320952468E-01    3.7575732530E-01
 *CO2               2.3680198019E-01    2.5033575118E-01    2.3822071791E-01    2.3957559362E-01    2.8097587946E-01    2.9850298101E-01    3.1877878284E-01    3.4620022501E-01
 COOH               4.7387571758E-05    2.6251089634E-05    4.4690174408E-05    4.2231518518E-05    4.1197747131E-06    8.3868619760E-07    1.3310968165E-07    0.0000000000E+00
 *H                 1.1842998387E-03    9.5747177752E-04    1.1606752619E-03    1.1381015149E-03    4.1064417491E-04    1.5383723278E-04    3.9320362472E-05    6.7762009831E-06
 HCO                5.8001917306E-05    3.1366889479E-05    5.4535039061E-05    5.1391140414E-05    4.9931686295E-06    1.1055574999E-06    1.9788210393E-07    2.7491624792E-08
 HO2                6.3195664495E-05    3.0593855485E-05    5.8979782382E-05    5.5143884712E-05    1.9124912097E-06    9.6951654215E-08    0.0000000000E+00    0.0000000000E+00
 *H2                1.0308865237E-02    1.0194972204E-02    1.0293527053E-02    1.0279547407E-02    1.0404121372E-02    1.1043580827E-02    1.1992720964E-02    1.3268277972E-02
 HCOOH              1.0175014708E-05    5.8599301837E-06    9.6208301812E-06    9.1166779355E-06    1.2886254500E-06    4.5814266843E-07    1.7327015246E-07    6.8804584627E-08
 H2O                2.6450357881E-01    2.7159976226E-01    2.6527972281E-01    2.6601431587E-01    2.8313314102E-01    2.8245362536E-01    2.7574294577E-01    2.6474804903E-01
 H2O2               1.4912118811E-05    7.4478112981E-06    1.3943933356E-05    1.3064209247E-05    6.2946883604E-07    5.3156998755E-08    0.0000000000E+00    0.0000000000E+00
 *O                 3.5314829306E-03    2.1960063043E-03    3.3794021283E-03    3.2367709283E-03    2.8839634477E-04    2.5697928253E-05    9.0681204739E-07    1.2414701448E-08
 *OH                3.0437568917E-02    2.2840698090E-02    2.9636352764E-02    2.8872295487E-02    6.8123163579E-03    1.6445330122E-03    2.3326318001E-04    1.9193223635E-05
 *O2                7.7454540417E-03    5.0529923909E-03    7.4523453765E-03    7.1744011932E-03    7.0088207954E-04    6.0454013302E-05    1.9846196930E-06    2.4527786848E-08

  * THERMODYNAMIC PROPERTIES FITTED TO 20000.K

 NOTE. WEIGHT FRACTION OF FUEL IN TOTAL FUELS AND OF OXIDANT IN TOTAL OXIDANTS



